data/case2869pegase.m
function mpc = case2869pegase
%CASE2869PEGASE  Power flow data for large part of European system.
%   Please see CASEFORMAT for details on the case file format.
%
%   This case accurately represents the size and complexity of part of the
%   European high voltage transmission network. The network contains 2,869
%   buses, 510 generators, and 4,582 branches and it operates at 380, 220,
%   150, and 110 kV. Please note that the data are fictitious and do not
%   correspond to real world data. They can thus be used to validate
%   methods and tools but should not be used for operation and planning of
%   the European grid.
%
%   The data stems from the Pan European Grid Advanced Simulation and State
%   Estimation (PEGASE) project, part of the 7th Framework Program of the
%   European Union (http://www.fp7-pegase.com/).
%
%   When publishing results based on this data, please cite:
%
%     C. Josz, S. Fliscounakis, J. Maeght, and P. Panciatici, "AC Power Flow
%     Data in MATPOWER and QCQP Format: iTesla, RTE Snapshots, and PEGASE"
%     http://arxiv.org/abs/1603.01533
%
%     S. Fliscounakis, P. Panciatici, F. Capitanescu, and L. Wehenkel,
%     "Contingency ranking with respect to overloads in very large power
%     systems taking into account uncertainty, preventive and corrective
%     actions", Power Systems, IEEE Trans. on, (28)4:4909-4917, 2013.
%     https://doi.org/10.1109/TPWRS.2013.2251015
%
%   Remarks:
%
%   1. Line flow limits are the current flow limits found in PEGASE data.
%
%   2. PEGASE data contains asymmetric shunt conductance and susceptance in
%   the PI transmission line model of branches. Thus total line charging
%   susceptance of branches is set to 0 p.u. and the nodal representation
%   of shunt condutance and susceptance is used. As a result, power flow
%   equations are left unchanged compared with original PEGASE data.
%   However, line flow constraints in the optimal flow problem are
%   modified.
%
%   3. Identical linear costs are used for all generators to form a loss
%   minimizing OPF objective function.
%
%   4. Since some parts of the network are aggregated, some generators
%   (e.g. with negative PMIN) represent aggregations of multiple loads
%   and generators.
%
%   Contacts:
%     Cédric Josz, Stéphane Fliscounakis, Jean Maeght, Patrick Panciatici
%     firstname.lastname@rte-france.com
%     Réseau de Transport d'Electricité (French Transmission System Operator)
%     Département Expertise Système, Immeuble "Le Colbert"
%     9 rue de la Porte de Buc, 78000 Versailles Cedex, France
%
%   March 18th, 2015

%   MATPOWER
%   Copyright (c) 2015, 2016 by Cédric Josz, Stéphane Fliscounakis, Jean Maeght,
%   and Patrick Panciatici
%   Licensed under the Creative Commons Attribution 4.0 International license,
%   http://creativecommons.org/licenses/by/4.0/

%% MATPOWER Case Format : Version 2
mpc.version = '2';

%%-----  Power Flow Data  -----%%
%% system MVA base
mpc.baseMVA = 100;

%% bus data
%	bus_i	type	Pd	Qd	Gs	Bs	area	Vm	Va	baseKV	zone	Vmax	Vmin
mpc.bus = [
	3	1	151	48.8	0	4.69	0	1.015975	-21.797826	220	5	1.1	0.9;
	4	1	171.41	23.4	0	2.1	0	1.025797	-7.009176	220	5	1.1	0.9;
	10	1	134	24.7	0	12.44	0	1.037973	-24.31171	220	5	1.1	0.9;
	15	1	59.67	26.7	0	12.84	0	1.024279	-48.286579	220	4	1.1	0.9;
	21	1	161.2	39.3	0	30.71	0	1.035642	-21.986561	220	5	1.1	0.9;
	22	1	0	-0	0	0.85	0	1.032862	-18.51179	220	5	1.1	0.9;
	26	1	167.3	54.8	0	110.54	0	1.032832	-3.303479	380	5	1.1	0.9;
	29	1	152.9	49.4	0	27.65	0	0.997905	-13.742779	380	5	1.1	0.9;
	32	2	0	0	0	0	0	1.006206	-42.36182	220	4	1.1	0.9;
	33	2	0	0	0	0	0	1.031909	-37.946488	220	4	1.1	0.9;
	38	1	42.75	12.8	0	13.3	0	1.028477	26.320254	220	8	1.1	0.9;
	39	2	0	0	0	0	0	1.005551	-37.656299	150	10	1.1	0.9;
	42	1	20.82	7.9	0	26.89	0	1.047415	-48.480512	380	4	1.1	0.9;
	44	1	-0	0	0	7.27	0	1.045273	-22.20917	220	5	1.1	0.9;
	51	2	0	0	0	0	0	1.01198	-47.438988	220	4	1.1	0.9;
	52	1	127.6	31.8	0	20.51	0	1.013245	0.963784	150	8	1.1	0.9;
	53	1	48.65	16.1	0	7.14	0	1.060523	-9.105713	220	5	1.1	0.9;
	58	1	0	0	0	2.31	0	0.995373	-21.587045	380	5	1.1	0.9;
	59	1	119.2	20.7	0	3.31	0	1.031574	-23.793559	220	5	1.1	0.9;
	69	1	62.87	20.5	0	1.15	0	1.011798	-0.30934	150	8	1.1	0.9;
	71	1	126.3	42.4	0	55.24	0	1.037783	3.197998	150	8	1.1	0.9;
	72	1	6.91	-4.6	0	5.75	0	1.009626	-40.551667	220	4	1.1	0.9;
	75	1	38.74	6.1	0	1.17	0	1.024422	-52.498016	220	4	1.1	0.9;
	76	1	22.13	10.7	0	14.21	0	1.028539	26.329875	220	8	1.1	0.9;
	77	1	-0	-0	0	0.73	0	1.013066	-48.881785	220	4	1.1	0.9;
	89	1	0	0	0.199111	4.530599	0	0.996001	-4.601142	380	2	1.1	0.9;
	90	1	363.25	115.39	0	3.95	0	1.04293	-27.629609	220	5	1.1	0.9;
	91	1	-0	0	0	0.02	0	1.011563	0.577525	150	8	1.1	0.9;
	96	1	-8.4	28.66	0	3.49	0	1.034803	-15.625024	220	5	1.1	0.9;
	113	1	-0	-0	0	6.532711	0	1.030544	-14.260449	380	5	1.1	0.9;
	115	1	0	-0	0	4.21	0	1.065676	-19.810351	220	5	1.1	0.9;
	118	1	704.53	-35.33	0	13.102834	0	1.021915	-11.391408	380	5	1.1	0.9;
	124	2	0	0	0	0	0	1.079291	8.367367	220	5	1.1	0.9;
	128	1	23.73	12.7	0	0.52	0	1.020115	-16.088574	220	5	1.1	0.9;
	130	1	-0	0	0.135375	47.750675	0	1.062972	-46.623005	380	10	1.1	0.9;
	132	1	0	-0	0	21.39	0	1.067846	-43.278308	380	1	1.1	0.9;
	133	1	38.14	12.5	0	6.28	0	1.01895	2.823528	150	8	1.1	0.9;
	138	1	-75.38	7.8	0	29.9	0	1.071168	-41.33849	380	10	1.1	0.9;
	139	1	-764.34	66.91	0	33.47	0	1.002952	17.568852	380	8	1.1	0.9;
	140	1	0	0	0	4.14	0	1.029191	17.813411	220	8	1.1	0.9;
	143	1	0	0	0	0	0	1.013822	4.4155	150	8	1.1	0.9;
	145	1	38.34	5.6	0	7.64	0	1.042169	-8.880162	220	5	1.1	0.9;
	148	1	32.34	12	0	6.1	0	1.041686	-7.998665	220	5	1.1	0.9;
	150	2	0	0	0	0	0	1.062067	2.553662	220	5	1.1	0.9;
	163	1	147.76	32.73	0	8.34	0	1.042505	-10.668912	220	5	1.1	0.9;
	164	1	0	-0	0	5.17	0	1.015861	-0.666839	150	8	1.1	0.9;
	171	1	100.8	13.2	0	5.24	0	1.063782	-25.157599	220	5	1.1	0.9;
	172	1	111.7	10.96	0	4.22	0	1.017044	-46.443671	220	4	1.1	0.9;
	174	1	370.5	-17	0	9.91	0	1.073491	-27.987179	220	5	1.1	0.9;
	177	1	94.9	36.2	0	16.46	0	0.973375	-42.693578	220	10	1.1	0.9;
	179	2	0	0	0	0	0	1.048817	-49.34001	380	4	1.1	0.9;
	184	1	-0	-0	0	2.42	0	1.043679	-11.957994	220	5	1.1	0.9;
	188	1	36.84	13.9	0	3.3	0	1.018271	-19.570046	220	5	1.1	0.9;
	194	2	0	0	0	0	0	1.029584	13.78786	150	8	1.1	0.9;
	195	1	73.14	21.55	0	8.52	0	1.053191	-8.795989	220	5	1.1	0.9;
	196	1	0	-0	0	12.48	0	1.074427	-26.348559	220	5	1.1	0.9;
	198	1	39.74	11.8	0	1.44	0	1.01582	-16.334436	220	5	1.1	0.9;
	199	1	86.8	28.4	0	1.34	0	1.011196	0.998875	150	8	1.1	0.9;
	201	2	0	0	0	0	0	1.024675	-50.722374	220	4	1.1	0.9;
	205	1	46.15	18.2	0	1.29	0	1.00871	4.996181	150	8	1.1	0.9;
	207	1	321.98	84.4	0	1.34	0	1.027593	-13.46248	220	5	1.1	0.9;
	211	1	75.28	19.2	0	1.9	0	1.032527	13.596519	110	8	1.1	0.9;
	216	1	155.6	54.7	0	2.21	0	1.038563	-24.634597	220	5	1.1	0.9;
	217	1	105.2	0.1	0	7.36	0	1.034707	-2.558504	220	5	1.1	0.9;
	218	1	69.83	15.12	0	2.23	0	1.042445	-13.132419	220	5	1.1	0.9;
	221	2	0	0	0	0	0	0.996091	-22.219166	380	5	1.1	0.9;
	225	1	0	0	0	1.15	0	1.062639	-20.201534	220	5	1.1	0.9;
	228	1	-23.43	57.4	0	0	0	1.043885	-8.143399	150	2	1.1	0.9;
	230	1	152.07	22.52	0	7.87	0	1.007001	-46.343334	220	4	1.1	0.9;
	231	1	-0.13	-1	0	0	0	1.019763	23.115587	110	8	1.1	0.9;
	236	1	45.85	7	0	1.05	0	1.02885	-53.54777	220	4	1.1	0.9;
	243	1	0	-0.01	0	13.49	0	1.01715	17.760873	150	8	1.1	0.9;
	244	1	-0	-0	0	0.68	0	1.018463	6.917494	150	8	1.1	0.9;
	249	1	-0	-0	0	26.3	0	1.005395	-42.359771	220	4	1.1	0.9;
	257	1	113.9	24.5	0	6.72	0	1.034093	-45.514467	220	4	1.1	0.9;
	261	1	-0	0	0	1.29	0	1.056876	-45.124465	380	10	1.1	0.9;
	264	1	38.74	9	0	0.57	0	1.01505	-46.406008	220	4	1.1	0.9;
	266	1	0	-0	0	140.96	0	1.059749	-41.880587	380	4	1.1	0.9;
	267	1	103.8	2.7	0	3.33	0	1.016267	-50.549724	220	4	1.1	0.9;
	268	1	-0.13	-1	0	0	0	1.046663	26.481396	220	8	1.1	0.9;
	271	1	96.7	26.8	0	0	0	1.03996	-9.671728	150	2	1.1	0.9;
	275	1	102.1	25.3	0	1.11	0	1.012638	2.38281	150	8	1.1	0.9;
	280	1	119.6	29.6	0	5.34	0	1.033127	-11.186618	220	5	1.1	0.9;
	281	1	-0	-0	0	18.07	0	1.035067	14.007344	380	8	1.1	0.9;
	283	1	27.33	11.9	0	1.17	0	1.036291	-12.101832	220	5	1.1	0.9;
	284	1	191.2	-3.4	0	19.21	0	1.023939	-48.338029	220	4	1.1	0.9;
	292	1	13.82	1.4	0	0.7	0	1.04757	-14.756324	220	5	1.1	0.9;
	297	1	23.73	9.4	0	1.45	0	1.025769	4.498938	150	8	1.1	0.9;
	299	2	0	0	0	0	0	1.046197	-45.832236	380	4	1.1	0.9;
	304	1	2.2	0.5	0	0.21	0	0.994426	-53.724872	150	10	1.1	0.9;
	305	1	103	12	0	0.63	0	1.066061	-32.494764	220	5	1.1	0.9;
	306	1	-0	0	0	4.76	0	1.029806	-18.845783	220	5	1.1	0.9;
	311	1	42.05	17.2	0	1.31	0	1.003155	-2.003262	150	8	1.1	0.9;
	312	1	-0.16	-2.91	0	0.43	0	1.054916	11.672353	110	8	1.1	0.9;
	314	1	163.1	46.3	0	10.6	0	1.000695	-16.068608	220	5	1.1	0.9;
	315	1	-0	-0	0	2.13	0	1.026865	-35.887691	220	10	1.1	0.9;
	317	1	-0	-0	0.045946	-1.82203	0	1.017677	6.394344	380	2	1.1	0.9;
	322	1	303.8	85.4	0	3.63	0	0.963932	-44.221789	220	10	1.1	0.9;
	326	1	0	0	0	0	0	1.046796	26.528223	220	8	1.1	0.9;
	333	1	524.5	43	0	6.85	0	1.012818	-42.225824	220	5	1.1	0.9;
	338	2	0	0	0	0	0	1.049578	-6.144398	220	5	1.1	0.9;
	344	1	372.8	147.5	0	27.73	0	1.022517	-1.388364	150	8	1.1	0.9;
	346	1	197.5	48.3	0	0.71	0	1.039389	-21.333666	220	5	1.1	0.9;
	349	1	-0	0	0	15.15	0	1.047326	9.079132	150	8	1.1	0.9;
	350	1	110.4	26.2	0	5.62	0	1.042975	-24.324408	220	5	1.1	0.9;
	351	1	-0.15	-1.93	0	0	0	1.028054	18.540762	220	8	1.1	0.9;
	352	2	0	0	0	0	0	1.054691	0.247829	380	5	1.1	0.9;
	360	1	35.54	11.5	0	3.65	0	1.047637	11.384137	110	8	1.1	0.9;
	367	1	65.17	-51.5	0	4.85	0	1.071258	-23.626071	220	5	1.1	0.9;
	369	1	-0	0	0	3.78	0	1.045084	13.593865	220	8	1.1	0.9;
	370	1	56.76	23.2	0	0.49	0	1.00045	-2.194776	150	8	1.1	0.9;
	377	1	-0.18	-1	0	0	0	1.021633	11.131046	150	8	1.1	0.9;
	380	1	-95.71	-2.8	0	7.25	0	1.004315	-32.70603	220	10	1.1	0.9;
	385	1	-0	-0	0	105.84	0	1.045045	-49.151666	380	4	1.1	0.9;
	387	1	-0.19	-4.38	0	0	0	1.040472	6.605475	150	8	1.1	0.9;
	389	2	0	0	0	0	0	1.020856	-40.645901	150	10	1.1	0.9;
	392	1	134.1	34.2	0	0.75	0	1.005558	-0.515044	150	8	1.1	0.9;
	395	1	-0	-0	0	7.85	0	1.034154	15.282226	380	8	1.1	0.9;
	401	1	56.5	36.29	0	3.08	0	1.028209	-14.323194	220	5	1.1	0.9;
	408	1	129.1	7.4	0	0.04	0	1.041485	-11.562819	220	5	1.1	0.9;
	410	1	170.89	50.38	0	6.44	0	1.035431	-26.631809	220	5	1.1	0.9;
	413	2	0	0	0	0	0	1.052152	-6.629634	220	5	1.1	0.9;
	415	1	4.71	0.7	0	11.39	0	1.029407	-51.548505	220	4	1.1	0.9;
	416	1	70.68	13.5	0	6.96	0	1.041782	-6.713309	220	5	1.1	0.9;
	420	1	0	0	0	0	0	1.049813	18.568379	380	8	1.1	0.9;
	425	1	-0	0	0	2.72	0	1.008682	6.877656	380	1	1.1	0.9;
	426	1	123.1	6.5	0	3.25	0	1.040559	-18.404022	220	5	1.1	0.9;
	427	1	-0	0	0	1.24	0	1.077855	-35.447133	380	1	1.1	0.9;
	429	1	26.93	-22.4	0	4.95	0	1.018028	-45.166294	220	4	1.1	0.9;
	432	1	-0	-0	0	68.517663	0	1.04617	2.418195	380	5	1.1	0.9;
	440	2	0	0	0	0	0	1.029422	-36.073637	220	4	1.1	0.9;
	441	1	-0	0	0.199768	27.888516	0	1.037169	-51.706225	380	10	1.1	0.9;
	442	2	0	0	0	0	0	1.013689	-46.010399	220	4	1.1	0.9;
	444	1	0	-0	0	2.45	0	1.037192	-12.208318	220	5	1.1	0.9;
	445	1	36.74	10.3	0	8.1	0	1.022265	-44.379049	220	4	1.1	0.9;
	449	1	0	0	0	29.42	0	1.02121	-8.505204	380	5	1.1	0.9;
	453	2	0	0	0	0	0	1.021096	-7.822572	380	5	1.1	0.9;
	455	1	274.32	5.66	0	13.24	0	1.043545	-30.648087	220	5	1.1	0.9;
	472	1	336.2	131.6	0	64.01	0	1.049863	7.888585	150	8	1.1	0.9;
	473	1	-22.95	-3.72	0	14.34	0	1.027789	-45.658214	220	4	1.1	0.9;
	477	1	0	0	0	70.37	0	1.049487	-41.702128	380	4	1.1	0.9;
	481	1	-0	0	0	17.44	0	1.024242	-47.836389	220	4	1.1	0.9;
	483	1	57.26	15.6	0	3.43	0	1.022965	-49.351603	220	4	1.1	0.9;
	486	1	7.01	2	0	0.44	0	1.014633	4.966833	150	8	1.1	0.9;
	489	2	0	0	0	0	0	1.012805	-47.213053	220	4	1.1	0.9;
	490	1	20.52	4	0	2.77	0	1.036343	-23.043793	220	5	1.1	0.9;
	496	1	-0	-0	0	10.04	0	1.018474	11.259593	150	8	1.1	0.9;
	500	1	144.4	35.5	0	7.66	0	1.037969	-15.06839	220	5	1.1	0.9;
	502	1	-0	0	0	1.96	0	1.04397	-6.689582	220	5	1.1	0.9;
	506	1	-0	0	0	0.4	0	1.062897	-9.075959	380	5	1.1	0.9;
	509	1	77.29	7	0	17.6	0	1.015368	-60.258851	220	4	1.1	0.9;
	513	1	57.46	17.1	0	1.61	0	1.038862	-7.455688	220	5	1.1	0.9;
	516	2	0	0	0	0	0	1.074804	-33.515516	220	5	1.1	0.9;
	519	1	207.2	9.4	0	8.77	0	1.026737	-49.849135	220	4	1.1	0.9;
	520	1	118.5	20.4	0	2.57	0	1.048877	-27.213193	220	5	1.1	0.9;
	523	1	189.9	74.7	0	26.2	0	1.043256	7.231269	150	8	1.1	0.9;
	527	1	277.7	45.4	0	0.7	0	1.014388	-46.235817	220	4	1.1	0.9;
	536	1	87.8	-1.4	0.079073	36.047349	0	1.059638	-47.971384	380	10	1.1	0.9;
	539	1	57.96	18.9	0	14.91	0	1.013211	3.762537	150	8	1.1	0.9;
	544	1	79.69	39.6	0	18.83	0	1.039051	-51.441574	380	10	1.1	0.9;
	548	1	30.93	8.9	0	0.45	0	1.03326	16.142358	110	8	1.1	0.9;
	549	1	0	-0	0	5.15	0	1.070777	-10.99741	220	5	1.1	0.9;
	550	1	0	-0	0	10	0	1.040041	-45.192187	220	4	1.1	0.9;
	552	1	180.8	90.8	0	2.42	0	0.969255	-42.920126	150	10	1.1	0.9;
	554	1	0	-0	0	1.97	0	1.021838	-20.831434	220	5	1.1	0.9;
	556	1	16.52	9	0	1.17	0	1.036788	-22.791951	220	5	1.1	0.9;
	558	1	-0.18	-3.57	0	0	0	1.017158	17.760895	150	8	1.1	0.9;
	559	1	42.25	16.6	0	0	0	1.03524	5.466244	150	8	1.1	0.9;
	561	1	0	-0	0	0.32	0	1.051908	-11.066228	220	5	1.1	0.9;
	564	2	0	0	0	0	0	1.069692	-47.162859	220	5	1.1	0.9;
	575	1	0	-0	0	0.67	0	1.045123	-11.170776	220	5	1.1	0.9;
	577	1	-0.13	-1	0	0	0	1.045911	26.397998	220	8	1.1	0.9;
	579	1	17.32	6.6	0	16.52	0	1.021347	-51.682309	380	4	1.1	0.9;
	583	2	0	0	0	0	0	1.043394	-15.595495	220	5	1.1	0.9;
	585	1	21.12	8.3	0	4.26	0	1.032522	3.857451	150	8	1.1	0.9;
	593	1	-0	0	0	29.2	0	1.054621	12.781834	380	8	1.1	0.9;
	594	1	67.57	17	0	5.75	0	1.038322	-8.883436	220	5	1.1	0.9;
	595	1	47.55	5.3	0	7.59	0	1.028698	-49.910829	220	4	1.1	0.9;
	597	1	33.34	15.7	0	64.15	0	1.059114	-47.539487	380	4	1.1	0.9;
	601	1	140.6	42.6	0	5.71	0	1.041109	-14.413923	220	5	1.1	0.9;
	602	1	110.8	-8.8	0	3.15	0	1.023809	-46.846316	220	4	1.1	0.9;
	604	1	33.24	4.4	0	24.54	0	0.996802	-12.954482	380	5	1.1	0.9;
	608	1	150.9	10.4	0	4.77	0	1.067834	-32.673267	220	5	1.1	0.9;
	609	1	-0	-0	0	5.67	0	1.022581	-14.805449	220	5	1.1	0.9;
	610	1	-0	0	0	0.91	0	0.990242	-55.420594	150	10	1.1	0.9;
	615	2	0	0	0	0	0	1.06611	-10.707846	220	5	1.1	0.9;
	616	2	0	0	0	0	0	1.049295	-12.996312	220	5	1.1	0.9;
	618	2	0	0	0	0	0	1.028233	-48.626653	380	4	1.1	0.9;
	619	1	72.88	14.4	0	2.96	0	1.045204	-25.296091	220	5	1.1	0.9;
	621	1	21.42	8.1	0	7.38	0	1.019534	-51.372282	220	4	1.1	0.9;
	628	2	0	0	0	0	0	0.98494	-34.539287	220	10	1.1	0.9;
	639	2	0	0	0	0	0	1.046182	-30.213914	220	5	1.1	0.9;
	641	1	45.32	18.5	0	0.74	0	1.0383	-13.886781	220	5	1.1	0.9;
	642	2	0	0	0	0	0	1.036757	-50.092904	380	4	1.1	0.9;
	643	1	15.52	6.3	0	0.6	0	1.007039	-1.733141	150	8	1.1	0.9;
	649	1	40.94	19.2	0	5.2	0	1.025052	-48.149342	220	4	1.1	0.9;
	650	1	17.22	4.4	0	1.71	0	1.020577	12.404841	110	8	1.1	0.9;
	656	1	-0.15	-1.93	0	0	0	1.028027	18.542452	220	8	1.1	0.9;
	658	1	258.4	66.7	0	5.87	0	1.033358	-17.451459	220	5	1.1	0.9;
	659	1	-0	-0	0.174507	73.977052	0	1.017121	6.345431	380	2	1.1	0.9;
...
];

%% generator data
%	bus	Pg	Qg	Qmax	Qmin	Vg	mBase	status	Pmax	Pmin	Pc1	Pc2	Qc1min	Qc1max	Qc2min	Qc2max	ramp_agc	ramp_10	ramp_30	ramp_q	apf
mpc.gen = [
	32	8	0.06	5.91	-4.56	1.006206	100	1	16.2	0	0	0	0	0	0	0	0	0	0	0	0;
	33	5.3	0.41	2.27	-1.08	1.031909	100	1	5.38	0	0	0	0	0	0	0	0	0	0	0	0;
	39	34.3	4.84	17.76	-7.14	1.005551	100	1	40	0	0	0	0	0	0	0	0	0	0	0	0;
	51	-144.5	0.55	5.48	-4.19	1.01198	100	1	100	-192.67	0	0	0	0	0	0	0	0	0	0	0;
	124	861.3	51.52	440.32	-172.59	1.079291	100	1	1000	333.33	0	0	0	0	0	0	0	0	0	0	0;
	150	67.29	-9.79	77.09	-22.54	1.062067	100	1	160	0	0	0	0	0	0	0	0	0	0	0	0;
	179	-179.2	-33.84	52.64	-51.72	1.048817	100	1	100	-238.93	0	0	0	0	0	0	0	0	0	0	0;
	194	268.6	43.34	130.19	-53.53	1.029584	100	1	300	100	0	0	0	0	0	0	0	0	0	0	0;
	201	5.2	0.39	2.27	-1.07	1.024675	100	1	5.37	0	0	0	0	0	0	0	0	0	0	0	0;
	221	-155.39	91.05	183.92	-65.3	0.996091	100	1	100	-207.18	0	0	0	0	0	0	0	0	0	0	0;
	299	975.9	127.2	721.25	-258.71	1.046197	100	1	1600	533.33	0	0	0	0	0	0	0	0	0	0	0;
	338	83.7	1.48	55.54	-19.16	1.049578	100	1	120	0	0	0	0	0	0	0	0	0	0	0	0;
	352	1250.4	268.17	926.35	-297.68	1.054691	100	1	2000	666.67	0	0	0	0	0	0	0	0	0	0	0;
	389	69	16.81	56.73	-17.84	1.020856	100	1	120	0	0	0	0	0	0	0	0	0	0	0	0;
	413	231	19.25	124.12	-49.84	1.052152	100	1	280	0	0	0	0	0	0	0	0	0	0	0	0;
	440	83.1	-4.05	55.73	-19.01	1.029422	100	1	120	0	0	0	0	0	0	0	0	0	0	0	0;
	442	-40.35	0.43	1.95	-0.93	1.013689	100	1	100	-53.8	0	0	0	0	0	0	0	0	0	0	0;
	453	260.1	54.54	257.23	-74.4	1.021096	100	1	540	0	0	0	0	0	0	0	0	0	0	0	0;
	489	-107.4	0.51	6.28	-4.82	1.012805	100	1	100	-143.2	0	0	0	0	0	0	0	0	0	0	0;
	516	539.4	188.57	261.79	-106.67	1.074804	100	1	600	200	0	0	0	0	0	0	0	0	0	0	0;
	564	-51.67	-0.63	18.47	-19.35	1.069692	100	1	100	-68.89	0	0	0	0	0	0	0	0	0	0	0;
	583	-270	5.38	17.88	-7.03	1.043394	100	1	100	-360	0	0	0	0	0	0	0	0	0	0	0;
	615	38.2	0.1	17.09	-7.79	1.06611	100	1	40	0	0	0	0	0	0	0	0	0	0	0	0;
	616	379.2	41.62	217.9	-81.16	1.049295	100	1	480	160	0	0	0	0	0	0	0	0	0	0	0;
	618	670.3	-35.39	351.18	-139.11	1.028233	100	1	800	266.67	0	0	0	0	0	0	0	0	0	0	0;
	628	152.4	41.51	78.79	-31.69	0.98494	100	1	180	0	0	0	0	0	0	0	0	0	0	0	0;
	639	-46.2	113.22	135.52	-38.9	1.046182	100	1	100	-61.6	0	0	0	0	0	0	0	0	0	0	0;
	642	63.33	-61.52	90.13	-93.03	1.036757	100	1	276.09	0	0	0	0	0	0	0	0	0	0	0	0;
	682	37.4	7.68	38.77	-11.06	1.065269	100	1	80	0	0	0	0	0	0	0	0	0	0	0	0;
	686	-21.65	-10.17	34.75	-34.26	1.018064	100	1	100	-28.86	0	0	0	0	0	0	0	0	0	0	0;
	698	274.8	1.65	129.94	-53.91	1.001541	100	1	300	100	0	0	0	0	0	0	0	0	0	0	0;
	709	16	-10.2	22.23	-20.83	1.072146	100	1	65.3	0	0	0	0	0	0	0	0	0	0	0	0;
	739	465.7	-64.04	212.97	-93.45	1.040583	100	1	500	166.67	0	0	0	0	0	0	0	0	0	0	0;
	749	198.88	4.46	105.69	-43.84	1.0548	100	1	240	0	0	0	0	0	0	0	0	0	0	0	0;
	751	65.9	-25.62	136.94	-47.24	1.023645	100	1	300	0	0	0	0	0	0	0	0	0	0	0	0;
	757	116.7	16.76	51.3	-23.41	1.016623	100	1	120	0	0	0	0	0	0	0	0	0	0	0	0;
	776	-111.4	5.74	18.16	-6.73	1.029038	100	1	100	-148.53	0	0	0	0	0	0	0	0	0	0	0;
	778	16.5	-0.5	12.37	-9.36	1.051035	100	1	33.58	0	0	0	0	0	0	0	0	0	0	0	0;
	780	50.8	17.97	37.43	-12.32	1.006139	100	1	80	0	0	0	0	0	0	0	0	0	0	0	0;
	795	58.4	7.49	36.75	-13.04	1.039638	100	1	80	0	0	0	0	0	0	0	0	0	0	0	0;
	803	-89.2	2.65	74.03	-25.54	1.04396	100	1	100	-118.93	0	0	0	0	0	0	0	0	0	0	0;
	807	1597.5	-194.05	864.47	-360.97	1.057043	100	1	2000	666.67	0	0	0	0	0	0	0	0	0	0	0;
	823	1274.2	283.53	926.68	-298.31	1.044347	100	1	2000	666.67	0	0	0	0	0	0	0	0	0	0	0;
	849	8.7	-0.02	6.45	-4.91	1.041392	100	1	17.57	0	0	0	0	0	0	0	0	0	0	0	0;
	851	59.56	49.36	96.64	-27.81	1.006263	100	1	200	0	0	0	0	0	0	0	0	0	0	0	0;
	858	855.6	161.18	440.67	-172.15	1.035299	100	1	1000	333.33	0	0	0	0	0	0	0	0	0	0	0;
	891	1702.8	646.56	1097.41	-373.91	1.063198	100	1	2400	800	0	0	0	0	0	0	0	0	0	0	0;
	913	1249.4	719.82	772.11	-269.94	1.032774	100	1	1700	566.67	0	0	0	0	0	0	0	0	0	0	0;
	916	230.2	-26.12	134.45	-49.76	1.024009	100	1	300	0	0	0	0	0	0	0	0	0	0	0	0;
	930	679.6	-118.4	406.66	-144.75	1.063763	100	1	900	300	0	0	0	0	0	0	0	0	0	0	0;
	972	1221.2	397.48	934.73	-291.52	1.068998	100	1	2000	666.67	0	0	0	0	0	0	0	0	0	0	0;
	976	21.3	-5.88	36.02	-35.35	1.029847	100	1	107.83	0	0	0	0	0	0	0	0	0	0	0	0;
	1001	92.1	29.32	55.02	-19.81	1.073365	100	1	120	0	0	0	0	0	0	0	0	0	0	0	0;
	1002	171	15.98	89.55	-35.15	1.040649	100	1	200	0	0	0	0	0	0	0	0	0	0	0	0;
	1021	-179.3	3.66	58.34	-16.23	1.019135	100	1	100	-239.07	0	0	0	0	0	0	0	0	0	0	0;
	1030	164.94	7.29	71.66	-27.89	1.00979	100	1	400	100	0	0	0	0	0	0	0	0	0	0	0;
	1036	202.5	-1.53	137.39	-46.45	1.038657	100	1	300	100	0	0	0	0	0	0	0	0	0	0	0;
	1043	829.5	41.74	387.88	-163.4	1.029789	100	1	900	300	0	0	0	0	0	0	0	0	0	0	0;
	1083	91.8	10.7	54.91	-19.88	1.046149	100	1	120	0	0	0	0	0	0	0	0	0	0	0	0;
	1093	837	95.08	550.69	-185.15	1.026457	100	1	1200	400	0	0	0	0	0	0	0	0	0	0	0;
	1100	58.2	5.03	36.8	-13.01	1.045212	100	1	80	0	0	0	0	0	0	0	0	0	0	0	0;
	1102	-124.15	12.77	38.05	-11.59	1.051902	100	1	100	-165.54	0	0	0	0	0	0	0	0	0	0	0;
	1121	289.79	-18.85	158.2	-62.81	1.019674	100	1	360	0	0	0	0	0	0	0	0	0	0	0	0;
	1173	-124.7	0.31	1.85	-0.88	1.026125	100	1	100	-166.27	0	0	0	0	0	0	0	0	0	0	0;
	1174	26.8	5.72	18.61	-6.28	1.004865	100	1	40	0	0	0	0	0	0	0	0	0	0	0	0;
	1175	309.54	-1.37	108.35	-39.12	1.040018	100	1	700	200	0	0	0	0	0	0	0	0	0	0	0;
	1237	1504.8	347.49	906.61	-319.44	1.105045	100	1	2000	666.67	0	0	0	0	0	0	0	0	0	0	0;
	1241	46.13	-14.82	22.29	-20.98	1.021438	100	1	65.63	0	0	0	0	0	0	0	0	0	0	0	0;
	1251	837	89.88	550.69	-185.15	1.0265	100	1	1200	400	0	0	0	0	0	0	0	0	0	0	0;
	1271	-100.5	-12.52	32.54	-32.11	1.015573	100	1	100	-134	0	0	0	0	0	0	0	0	0	0	0;
	1295	-124.1	9.31	36.92	-12.88	1.038943	100	1	100	-165.47	0	0	0	0	0	0	0	0	0	0	0;
	1341	67.2	31.22	57.03	-17.62	1.030396	100	1	120	0	0	0	0	0	0	0	0	0	0	0	0;
	1354	-246.5	21.44	38.08	-11.73	1.04168	100	1	100	-328.67	0	0	0	0	0	0	0	0	0	0	0;
	1391	26.2	2.19	18.74	-6.17	1.028915	100	1	40	0	0	0	0	0	0	0	0	0	0	0	0;
	1399	-174.6	-2.47	11.64	-10.2	1.052722	100	1	100	-232.8	0	0	0	0	0	0	0	0	0	0	0;
	1409	628.19	-89.19	338.66	-151.76	1.024907	100	1	800	266.67	0	0	0	0	0	0	0	0	0	0	0;
	1422	-101	3.68	18.09	-6.79	1.045292	100	1	100	-134.67	0	0	0	0	0	0	0	0	0	0	0;
	1436	49.4	2.83	37.72	-12.09	1.049261	100	1	80	0	0	0	0	0	0	0	0	0	0	0	0;
	1458	1588	-288.24	895.23	-330.78	1.05352	100	1	2000	666.67	0	0	0	0	0	0	0	0	0	0	0;
	1475	783.9	-108.21	394.45	-157	1.025403	100	1	900	300	0	0	0	0	0	0	0	0	0	0	0;
	1478	62.6	7.21	36.4	-13.44	1.046165	100	1	80	0	0	0	0	0	0	0	0	0	0	0	0;
	1498	5.2	0.36	2.25	-1.06	1.078389	100	1	5.31	0	0	0	0	0	0	0	0	0	0	0	0;
	1570	121.4	-4.09	93.16	-29.49	1.079057	100	1	200	66.67	0	0	0	0	0	0	0	0	0	0	0;
	1604	50.6	14.56	37.66	-12.17	1.044277	100	1	80	0	0	0	0	0	0	0	0	0	0	0	0;
	1618	-136.6	-10.11	21.27	-20.07	1.079319	100	1	100	-182.13	0	0	0	0	0	0	0	0	0	0	0;
	1642	50.4	13.34	37.74	-12.11	1.031925	100	1	80	0	0	0	0	0	0	0	0	0	0	0	0;
	1680	1250.4	271.17	928.89	-296.1	1.044209	100	1	2000	666.67	0	0	0	0	0	0	0	0	0	0	0;
	1685	62.7	16.57	57.41	-17.22	1.005778	100	1	120	0	0	0	0	0	0	0	0	0	0	0	0;
	1697	-189	-12.59	31.94	-31.24	1.041486	100	1	100	-252	0	0	0	0	0	0	0	0	0	0	0;
	1708	860.8	132.37	439.37	-173.3	1.037844	100	1	1000	333.33	0	0	0	0	0	0	0	0	0	0	0;
	1721	28.1	1.63	18.52	-6.39	1.061536	100	1	40	0	0	0	0	0	0	0	0	0	0	0	0;
	1747	835.5	271.39	387.67	-163.73	1.055274	100	1	900	300	0	0	0	0	0	0	0	0	0	0	0;
	1754	40	5.45	16.99	-7.92	1.040804	100	1	41.06	0	0	0	0	0	0	0	0	0	0	0	0;
	1788	430.2	252.54	272.25	-94.92	1.018729	100	1	600	200	0	0	0	0	0	0	0	0	0	0	0;
	1793	-90.3	-0.67	34.64	-15.2	1.023406	100	1	100	-120.4	0	0	0	0	0	0	0	0	0	0	0;
	1794	1250.4	248.88	926.35	-297.68	1.052726	100	1	2000	666.67	0	0	0	0	0	0	0	0	0	0	0;
	1808	-0.6	-6.42	111.23	-38.16	1.047818	100	1	100	-0.8	0	0	0	0	0	0	0	0	0	0	0;
	1850	2.89	-1.45	11.52	-10.09	1.020156	100	1	32.97	0	0	0	0	0	0	0	0	0	0	0	0;
	1851	15.6	-0.75	11.76	-8.89	1.0492	100	1	31.92	0	0	0	0	0	0	0	0	0	0	0	0;
	1852	-241.8	15.7	58.16	-16.52	1.056131	100	1	100	-322.4	0	0	0	0	0	0	0	0	0	0	0;
	1888	573.68	43.66	396.02	-155.83	1.043102	100	1	912.78	312.78	0	0	0	0	0	0	0	0	0	0	0;
	1890	1526	129.25	686.73	-294.62	1.050852	100	1	1600	533.33	0	0	0	0	0	0	0	0	0	0	0;
	1898	246	-24.92	133.11	-51.25	1.077705	100	1	300	0	0	0	0	0	0	0	0	0	0	0	0;
	1909	-31.18	3.61	38.67	-11.1	1.021788	100	1	100	-41.57	0	0	0	0	0	0	0	0	0	0	0;
	1914	115.5	-35.25	160.36	-150.95	1.038338	100	1	472.16	39.35	0	0	0	0	0	0	0	0	0	0	0;
	1947	-17.02	0.43	2.05	-0.97	1.056511	100	1	100	-22.7	0	0	0	0	0	0	0	0	0	0	0;
	1959	31	1.06	18.14	-6.75	1.066953	100	1	40	0	0	0	0	0	0	0	0	0	0	0	0;
	1999	141.6	5.8	80.51	-30.07	1.080207	100	1	180	0	0	0	0	0	0	0	0	0	0	0	0;
	2030	576	167.94	257	-110.85	1.072679	100	1	600	200	0	0	0	0	0	0	0	0	0	0	0;
	2035	855.6	161.48	441.85	-171.27	1.034553	100	1	1000	333.33	0	0	0	0	0	0	0	0	0	0	0;
	2050	836.2	-45.26	962.2	-263.65	1.008592	100	1	2000	666.67	0	0	0	0	0	0	0	0	0	0	0;
	2085	176	36.2	88.39	-36.19	1.03273	100	1	200	0	0	0	0	0	0	0	0	0	0	0	0;
	2091	33.9	1.74	17.88	-7.04	1.026543	100	1	40	0	0	0	0	0	0	0	0	0	0	0	0;
	2096	1063.5	-194.12	522.74	-212.37	1.050714	100	1	1200	400	0	0	0	0	0	0	0	0	0	0	0;
	2107	1269.4	611.1	661.9	-257.62	1.048234	100	1	1500	500	0	0	0	0	0	0	0	0	0	0	0;
	2150	498.4	98.97	266.17	-101.5	1.064827	100	1	600	200	0	0	0	0	0	0	0	0	0	0	0;
	2177	-121.3	15.21	58.35	-16.26	1.070558	100	1	100	-161.73	0	0	0	0	0	0	0	0	0	0	0;
	2193	7.9	1.86	7.47	-2.56	1.014181	100	1	16.12	0	0	0	0	0	0	0	0	0	0	0	0;
	2197	-53.29	2.68	19.51	-14.74	1.036195	100	1	100	-71.05	0	0	0	0	0	0	0	0	0	0	0;
	2206	204.3	24.03	137.29	-46.58	1.020141	100	1	300	100	0	0	0	0	0	0	0	0	0	0	0;
	2225	-83.5	0.41	2.27	-1.04	1.02967	100	1	100	-111.33	0	0	0	0	0	0	0	0	0	0	0;
	2236	-38.45	0.44	2.23	-1.07	1.023164	100	1	100	-51.26	0	0	0	0	0	0	0	0	0	0	0;
	2267	362	147.75	228.16	-78.83	1.000857	100	1	500	166.67	0	0	0	0	0	0	0	0	0	0	0;
	2276	38.9	-22.76	41.67	-36.5	1.055141	100	1	119.3	0	0	0	0	0	0	0	0	0	0	0	0;
	2291	110.5	12.61	95.69	-28.93	1.068687	100	1	200	0	0	0	0	0	0	0	0	0	0	0	0;
	2335	431.2	242.01	273.49	-94.1	1.040978	100	1	600	200	0	0	0	0	0	0	0	0	0	0	0;
	2359	78.2	8.56	34.35	-15.5	1.025004	100	1	80	0	0	0	0	0	0	0	0	0	0	0	0;
	2412	67.3	-92.42	134.54	-136.29	1.016849	100	1	409.09	0	0	0	0	0	0	0	0	0	0	0	0;
	2421	-320.4	10.06	37.39	-12.45	1.047704	100	1	100	-427.2	0	0	0	0	0	0	0	0	0	0	0;
	2425	-100.5	14.28	54.3	-20.49	1.043025	100	1	100	-134	0	0	0	0	0	0	0	0	0	0	0;
	2426	-43.2	-33.04	105.34	-99.02	1.040828	100	1	100	-57.6	0	0	0	0	0	0	0	0	0	0	0;
	2446	1367	280.85	921.62	-304.73	1.053565	100	1	2000	666.67	0	0	0	0	0	0	0	0	0	0	0;
	2460	37.79	20.28	38.01	-11.74	0.983266	100	1	80	0	0	0	0	0	0	0	0	0	0	0	0;
	2468	46.8	4.68	38.02	-11.81	1.049474	100	1	80	0	0	0	0	0	0	0	0	0	0	0	0;
	2481	31.8	11.07	39.12	-10.71	1.041748	100	1	80	0	0	0	0	0	0	0	0	0	0	0	0;
	2489	286.5	-17.67	162.4	-61.79	1.049212	100	1	360	0	0	0	0	0	0	0	0	0	0	0	0;
	2517	3.85	-14.82	78.13	-77.07	1.017237	100	1	234.52	0	0	0	0	0	0	0	0	0	0	0	0;
	2550	54.3	3.25	58.23	-16.49	1.050935	100	1	120	0	0	0	0	0	0	0	0	0	0	0	0;
	2572	411.2	80.01	276.19	-91.63	1.044905	100	1	600	200	0	0	0	0	0	0	0	0	0	0	0;
	2600	76.48	15.74	76.08	-23.59	1.041924	100	1	160	0	0	0	0	0	0	0	0	0	0	0	0;
	2627	1367	289.47	921.52	-304.79	1.052984	100	1	2000	666.67	0	0	0	0	0	0	0	0	0	0	0;
	2642	1897	-254.15	848.76	-377.67	1.054923	100	1	2000	666.67	0	0	0	0	0	0	0	0	0	0	0;
	2653	41.92	10.03	51.94	-22.8	1.036409	100	1	120	0	0	0	0	0	0	0	0	0	0	0	0;
	2658	308.31	-21.53	124.68	-59.39	1.026597	100	1	700	200	0	0	0	0	0	0	0	0	0	0	0;
	2660	144.9	12.3	79.69	-30.77	1.013897	100	1	180	0	0	0	0	0	0	0	0	0	0	0	0;
	2686	-72.9	-46.07	69.01	-69.9	1.020441	100	1	100	-97.2	0	0	0	0	0	0	0	0	0	0	0;
	2719	77.6	-16.82	70.15	-58.1	1.039499	100	1	196.72	0	0	0	0	0	0	0	0	0	0	0	0;
	2764	575.4	-114.34	416.7	-134.5	1.05096	100	1	900	300	0	0	0	0	0	0	0	0	0	0	0;
	2786	1221.2	379.25	934.81	-291.47	1.069288	100	1	2000	666.67	0	0	0	0	0	0	0	0	0	0	0;
	2797	-95.1	-2.82	88.33	-36.33	1.044662	100	1	100	-126.8	0	0	0	0	0	0	0	0	0	0	0;
	2799	66.8	-1.37	77.91	-21.66	1.055463	100	1	160	0	0	0	0	0	0	0	0	0	0	0	0;
	2800	1048.2	-98.17	525.34	-209.84	1.030206	100	1	1200	400	0	0	0	0	0	0	0	0	0	0	0;
	2816	1250.4	280.3	926.26	-297.74	1.054536	100	1	2000	666.67	0	0	0	0	0	0	0	0	0	0	0;
	2817	71.8	4.24	34.8	-14.94	0.991705	100	1	80	0	0	0	0	0	0	0	0	0	0	0	0;
	2841	80.7	-3.32	55.98	-18.76	1.079986	100	1	120	0	0	0	0	0	0	0	0	0	0	0	0;
	2842	31.6	6.06	18.19	-6.74	1.044122	100	1	40	0	0	0	0	0	0	0	0	0	0	0	0;
	2853	126	10.21	72.02	-27.47	1.000604	100	1	160	0	0	0	0	0	0	0	0	0	0	0	0;
	2872	4.5	0.35	3.31	-2.54	1.060615	100	1	9.05	0	0	0	0	0	0	0	0	0	0	0	0;
	2878	8.95	-12.23	72.95	-68.71	1.05418	100	1	214.86	0	0	0	0	0	0	0	0	0	0	0	0;
	2886	60.9	10.13	57.69	-17.02	1.052878	100	1	120	0	0	0	0	0	0	0	0	0	0	0	0;
	2896	-223.4	0.31	1.52	-0.73	1.011629	100	1	100	-297.87	0	0	0	0	0	0	0	0	0	0	0;
	2902	20.9	1.52	19.19	-5.72	1.061022	100	1	40	0	0	0	0	0	0	0	0	0	0	0	0;
	2930	53.2	2.38	37.24	-12.54	1.049271	100	1	80	0	0	0	0	0	0	0	0	0	0	0	0;
	2934	3.4	0.17	2.51	-1.91	1.052968	100	1	6.83	0	0	0	0	0	0	0	0	0	0	0	0;
	2946	-222.1	0.29	1.83	-0.87	1.020023	100	1	100	-296.13	0	0	0	0	0	0	0	0	0	0	0;
	2985	46.6	-70.17	184.46	-132.67	1.05077	100	1	493.35	0	0	0	0	0	0	0	0	0	0	0	0;
	3018	162.5	-4.96	89.61	-34.82	1.043371	100	1	200	0	0	0	0	0	0	0	0	0	0	0	0;
	3028	855.7	158.53	441.85	-171.27	1.034318	100	1	1000	333.33	0	0	0	0	0	0	0	0	0	0	0;
	3054	210.4	123.54	167.72	-77.11	0.999852	100	1	400	133.33	0	0	0	0	0	0	0	0	0	0	0;
	3113	-20.3	-10.92	22.39	-20.99	1.072644	100	1	100	-27.07	0	0	0	0	0	0	0	0	0	0	0;
	3114	38.6	3.91	17.33	-7.61	1.0681	100	1	40	0	0	0	0	0	0	0	0	0	0	0	0;
	3133	85.54	-1.1	113.97	-35.56	1.061763	100	1	240	0	0	0	0	0	0	0	0	0	0	0	0;
	3134	-136.3	-10.75	70.25	-29.33	1.02503	100	1	100	-181.73	0	0	0	0	0	0	0	0	0	0	0;
	3150	-31.34	0.57	6.66	-5.1	1.017094	100	1	100	-41.79	0	0	0	0	0	0	0	0	0	0	0;
	3157	9	-0.09	6.78	-5.13	1.023658	100	1	18.41	0	0	0	0	0	0	0	0	0	0	0	0;
	3163	33.9	-29.77	67.92	-69.02	1.006379	100	1	206.86	0	0	0	0	0	0	0	0	0	0	0	0;
	3183	98.7	-3.82	53.7	-20.98	1.056991	100	1	120	0	0	0	0	0	0	0	0	0	0	0	0;
	3205	416.7	108.62	243.61	-88.46	1.03763	100	1	540	0	0	0	0	0	0	0	0	0	0	0	0;
	3218	-107.4	9.03	36.79	-13	1.032146	100	1	100	-143.2	0	0	0	0	0	0	0	0	0	0	0;
	3233	13	-7.58	178.47	-79.11	1.012423	100	1	420	0	0	0	0	0	0	0	0	0	0	0	0;
	3240	-42.3	-24.84	62.23	-51.37	1.051571	100	1	100	-56.4	0	0	0	0	0	0	0	0	0	0	0;
	3291	326.4	-17.26	229	-77.02	1.027251	100	1	500	166.67	0	0	0	0	0	0	0	0	0	0	0;
	3306	861.3	134.8	439.2	-173.43	1.069265	100	1	1000	333.33	0	0	0	0	0	0	0	0	0	0	0;
	3324	-26.48	16.92	38.13	-11.64	1.016523	100	1	100	-35.3	0	0	0	0	0	0	0	0	0	0	0;
	3334	-45.5	3.24	34.41	-15.34	1.03247	100	1	100	-60.67	0	0	0	0	0	0	0	0	0	0	0;
	3335	-600	2045.7	99999	-99999	1.08873	100	1	630	-630	0	0	0	0	0	0	0	0	0	0	0;
	3346	56.8	12.86	37.1	-12.76	1.014746	100	1	80	0	0	0	0	0	0	0	0	0	0	0	0;
	3353	19.07	6.07	38.2	-11.61	1.047796	100	1	80	0	0	0	0	0	0	0	0	0	0	0	0;
	3364	44.5	-22.17	47.19	-41.44	1.055303	100	1	135.27	0	0	0	0	0	0	0	0	0	0	0	0;
	3390	2.4	21.5	54.59	-20.19	1.041678	100	1	120	0	0	0	0	0	0	0	0	0	0	0	0;
	3416	171.3	38.2	76.43	-34.12	0.997085	100	1	180	0	0	0	0	0	0	0	0	0	0	0	0;
	3422	53.7	-2.9	58.19	-16.5	1.065868	100	1	120	0	0	0	0	0	0	0	0	0	0	0	0;
	3436	521	207.76	550.97	-184.89	1.056276	100	1	1200	400	0	0	0	0	0	0	0	0	0	0	0;
	3492	-370.8	6.56	53.75	-21.08	1.04519	100	1	100	-494.4	0	0	0	0	0	0	0	0	0	0	0;
	3513	829.8	43.52	387.88	-163.4	1.029628	100	1	900	300	0	0	0	0	0	0	0	0	0	0	0;
	3565	15.88	2.99	38.83	-10.97	1.079121	100	1	80	0	0	0	0	0	0	0	0	0	0	0	0;
	3580	539	187.63	261.7	-107.36	1.075232	100	1	600	0	0	0	0	0	0	0	0	0	0	0	0;
	3582	-321.8	-36.63	52.83	-52.04	1.045127	100	1	100	-429.07	0	0	0	0	0	0	0	0	0	0	0;
	3584	-88.4	-1.9	19.8	-15.12	1.019651	100	1	100	-117.87	0	0	0	0	0	0	0	0	0	0	0;
	3585	50.8	17.99	37.43	-12.32	1.006097	100	1	80	0	0	0	0	0	0	0	0	0	0	0	0;
...
];

%% branch data
%	fbus	tbus	r	x	b	rateA	rateB	rateC	ratio	angle	status	angmin	angmax
mpc.branch = [
	5147	3097	0.0006	0.00616	0	823	0	0	0	0	1	-360	360;
	5147	8763	0.0005	0.0074	0	921	0	0	0	0	1	-360	360;
	427	5425	7e-05	0.00057	0	1711	0	0	0	0	1	-360	360;
	427	4704	6e-05	0.00056	0	1514	0	0	0	0	1	-360	360;
	5960	7431	0.003349	0.01656	0	0	0	0	0	0	1	-360	360;
	5960	3186	0.003409	0.016211	0	0	0	0	0	0	1	-360	360;
	4481	7431	0.003479	0.01586	0	0	0	0	0	0	1	-360	360;
	4481	3186	0.003099	0.017969	0	0	0	0	0	0	1	-360	360;
	5205	7833	0.00236	0.01418	0	553	0	0	0	0	1	-360	360;
	5205	7770	0.002169	0.015909	0	514	0	0	0	0	1	-360	360;
	5773	6542	0.00014	0.0012	0	0	0	0	0	0	1	-360	360;
	5773	7840	0.000211	0.001539	0	0	0	0	0	0	1	-360	360;
	5214	6542	0.000401	0.004901	0	0	0	0	0	0	1	-360	360;
	5214	7840	0.000219	0.00151	0	533	0	0	0	0	1	-360	360;
	2971	6069	0.00052	0.00407	0	1481	0	0	0	0	1	-360	360;
	2971	3445	0.00034	0.00502	0	1843	0	0	0	0	1	-360	360;
	7561	6069	0.00065	0.00698	0	1711	0	0	0	0	1	-360	360;
	7561	8825	0.00059	0.00806	0	1678	0	0	0	0	1	-360	360;
	7556	7058	0.00374	0.02095	0	800	0	0	0	0	1	-360	360;
	7556	4324	0.00511	0.019461	0	800	0	0	0	0	1	-360	360;
	132	2962	0.00064	0.00715	0	1481	0	0	0	0	1	-360	360;
	132	4393	0.00089	0.00712	0	1283	0	0	0	0	1	-360	360;
	5044	693	0.00048	0.00555	0	987	0	0	0	0	1	-360	360;
	5044	7860	0.00047	0.00566	0	1086	0	0	0	0	1	-360	360;
	6883	693	0.00046	0.00524	0	1053	0	0	0	0	1	-360	360;
	6883	7860	0.00052	0.00514	0	1053	0	0	0	0	1	-360	360;
	6494	4945	0.00029	0.00298	0	1613	0	0	0	0	1	-360	360;
	6494	6080	0.0003	0.00291	0	1514	0	0	0	0	1	-360	360;
	7146	7388	0.00042	0.02666	0	1185	0	0	0	0	1	-360	360;
	4735	5239	0.00058	0.00534	0	1876	0	0	0	0	1	-360	360;
	4735	3145	0.00054	0.00589	0	1843	0	0	0	0	1	-360	360;
	3615	8731	0.00036	0.00485	0	0	0	0	0	0	1	-360	360;
	3615	6246	0.00042	0.00415	0	0	0	0	0	0	1	-360	360;
	2549	7829	0.003349	0.02445	0	553	0	0	0	0	1	-360	360;
	2549	4951	0.003281	0.02493	0	553	0	0	0	0	1	-360	360;
	7004	3370	0	0.00046	0	757	0	0	0	0	1	-360	360;
	8381	4795	0.00053	0.00587	0	1777	0	0	0	0	1	-360	360;
	8381	5562	0.00055	0.00666	0	1711	0	0	0	0	1	-360	360;
	3409	1716	0.00051	0.00614	0	0	0	0	0	0	1	-360	360;
	3409	6246	0.00043	0.00406	0	0	0	0	0	0	1	-360	360;
	1000	6145	0.002211	0.014419	0	438	0	0	0	0	1	-360	360;
	1000	3186	0.002169	0.013349	0	457	0	0	0	0	1	-360	360;
	6060	5289	0.00033	0.00101	0	823	0	0	0	0	1	-360	360;
	7965	5289	0.00028	0.00104	0	757	0	0	0	0	1	-360	360;
	4363	4507	0.00057	0.0071	0	1613	0	0	0	0	1	-360	360;
	4363	6246	0.00057	0.00697	0	1613	0	0	0	0	1	-360	360;
	425	7526	0.0001	0.00119	0	1810	0	0	0	0	1	-360	360;
	425	5674	0.0001	0.0013	0	1613	0	0	0	0	1	-360	360;
	4799	8581	9e-05	0.00121	0	1514	0	0	0	0	1	-360	360;
	4799	4337	0.0001	0.00134	0	1251	0	0	0	0	1	-360	360;
	4968	2154	0.00039	0.00474	0	1843	0	0	0	0	1	-360	360;
	4968	1747	0.00045	0.00467	0	1448	0	0	0	0	1	-360	360;
	7699	2154	0.00052	0.00567	0	1645	0	0	0	0	1	-360	360;
	7699	1689	0.00054	0.00667	0	1316	0	0	0	0	1	-360	360;
	3097	659	0.00073	0.00905	0	1185	0	0	0	0	1	-360	360;
	9024	4929	0.00192	0.02296	0	889	0	0	0	0	1	-360	360;
	1815	6542	0.01431	0.05899	0	0	0	0	0	0	1	-360	360;
	6542	1445	0.02607	0.07168	0	0	0	0	0	0	1	-360	360;
	6069	6833	0.00054	0.00465	0	1580	0	0	0	0	1	-360	360;
	6069	2268	0.00126	0.01124	0	1613	0	0	0	0	1	-360	360;
	6069	7180	0.00048	0.00527	0	1547	0	0	0	0	1	-360	360;
	6069	6293	0.00082	0.00938	0	1580	0	0	0	0	1	-360	360;
	1968	9192	0.00028	0.003502	0	0	0	0	0	0	1	-360	360;
	1968	3493	0.691467	4.414711	0	0	0	0	0	0	1	-360	360;
	1968	955	0.02004	0.0916	0	0	0	0	0	0	1	-360	360;
	1968	228	0.841911	4.768444	0	0	0	0	0	0	1	-360	360;
	1968	6826	0.026	0.08948	0	0	0	0	0	0	1	-360	360;
	1968	8964	0.002631	0.011889	0	299	0	0	0	0	1	-360	360;
	1968	5776	0.7232	1.944	0	0	0	0	0	0	1	-360	360;
	9192	955	0.156169	0.546756	0	0	0	0	0	0	1	-360	360;
	9192	6826	0.168809	0.580622	0	0	0	0	0	0	1	-360	360;
	9192	8964	0.019222	0.068209	0	0	0	0	0	0	1	-360	360;
	8574	1616	0.00039	0.00386	0	1415	0	0	0	0	1	-360	360;
	8574	1163	0.00096	0.01138	0	1448	0	0	0	0	1	-360	360;
	8574	9064	0.00037	0.00325	0	1415	0	0	0	0	1	-360	360;
	8574	8921	0.00029	0.00339	0	1580	0	0	0	0	1	-360	360;
	3493	2299	0.009458	0.158871	0	0	0	0	0	0	1	-360	360;
	2299	4423	0	0.000222	0	0	0	0	0	0	1	-360	360;
	6826	2299	0.312951	7.130667	0	0	0	0	0	0	1	-360	360;
	7563	2299	0.247649	1.075911	0	0	0	0	0	0	1	-360	360;
	4427	2299	0.06056	0.18612	0	0	0	0	0	0	1	-360	360;
	8335	2299	2.142489	4.347733	0	0	0	0	0	0	1	-360	360;
	5155	2299	0.07132	1.068889	0	0	0	0	0	0	1	-360	360;
	271	2299	0.02268	0.08652	0	0	0	0	0	0	1	-360	360;
	2449	2299	2.007778	4.494222	0	0	0	0	0	0	1	-360	360;
	4665	2299	0.006178	0.028938	0	0	0	0	0	0	1	-360	360;
	4495	2299	0.027711	0.260951	0	0	0	0	0	0	1	-360	360;
	3493	5587	0	0.000222	0	299	0	0	0	0	1	-360	360;
	4586	3493	0.00692	0.337378	0	0	0	0	0	0	1	-360	360;
	228	3493	0.025991	0.10048	0	0	0	0	0	0	1	-360	360;
	6826	3493	0.083711	0.8648	0	0	0	0	0	0	1	-360	360;
	7563	3493	0.447378	1.862089	0	0	0	0	0	0	1	-360	360;
	4427	3493	0.062169	0.153191	0	0	0	0	0	0	1	-360	360;
	8335	3493	2.492533	4.725778	0	0	0	0	0	0	1	-360	360;
	5155	3493	0.020271	0.08244	0	0	0	0	0	0	1	-360	360;
	271	3493	0.11416	1.777556	0	0	0	0	0	0	1	-360	360;
	5776	3493	0.574978	2.992578	0	0	0	0	0	0	1	-360	360;
	2449	3493	1.887067	4.964444	0	0	0	0	0	0	1	-360	360;
	4665	3493	0.250778	0.817422	0	0	0	0	0	0	1	-360	360;
	4495	3493	0.007049	0.029609	0	0	0	0	0	0	1	-360	360;
	5587	4586	0.003049	0.020218	0	0	0	0	0	0	1	-360	360;
	4423	4586	0.002911	0.020262	0	0	0	0	0	0	1	-360	360;
	4929	2870	4e-05	0.00041	0	757	0	0	0	0	1	-360	360;
	4929	659	0.00087	0.01087	0	1283	0	0	0	0	1	-360	360;
	4929	1037	4e-05	0.00046	0	757	0	0	0	0	1	-360	360;
	4929	659	0.00095	0.00924	0	1481	0	0	0	0	1	-360	360;
	1815	5210	0.528017	2.636157	0	0	0	0	0	0	1	-360	360;
	1815	1445	0.032031	0.128659	0	0	0	0	0	0	1	-360	360;
	1616	7762	0.00044	0.0032	0	1645	0	0	0	0	1	-360	360;
	1616	2520	0.00046	0.00489	0	1711	0	0	0	0	1	-360	360;
	9064	7762	0.0003	0.00352	0	1580	0	0	0	0	1	-360	360;
	9064	89	0.00051	0.00454	0	1645	0	0	0	0	1	-360	360;
	1317	659	0.00068	0.00746	0	1613	0	0	0	0	1	-360	360;
	1317	8605	0.00093	0.01022	0	1744	0	0	0	0	1	-360	360;
	8605	1367	4e-05	0.0004	0	1481	0	0	0	0	1	-360	360;
	8605	8921	0.00078	0.00698	0	1744	0	0	0	0	1	-360	360;
	1163	1676	4e-05	0.00043	0	1580	0	0	0	0	1	-360	360;
	1163	7051	0.00025	0.00309	0	1678	0	0	0	0	1	-360	360;
	913	7762	0.00047	0.00538	0	1613	0	0	0	0	1	-360	360;
	2107	7762	0.00046	0.00548	0	1744	0	0	0	0	1	-360	360;
	2107	5996	0.00016	0.00173	0	1843	0	0	0	0	1	-360	360;
	2107	6293	0.00166	0.01471	0	1744	0	0	0	0	1	-360	360;
	913	7762	0.00051	0.00512	0	1777	0	0	0	0	1	-360	360;
	6704	8921	0.00021	0.00248	0	1514	0	0	0	0	1	-360	360;
	228	4586	0.004391	0.021689	0	286	0	0	0	0	1	-360	360;
	2441	6293	0.00024	0.00289	0	1645	0	0	0	0	1	-360	360;
	955	3506	0	0.000222	0	338	0	0	0	0	1	-360	360;
	955	8964	0.01788	0.100471	0	0	0	0	0	0	1	-360	360;
	3506	2908	0.006458	0.039982	0	0	0	0	0	0	1	-360	360;
	228	6826	0.106151	0.993333	0	0	0	0	0	0	1	-360	360;
	228	5776	0.699778	3.232311	0	0	0	0	0	0	1	-360	360;
	8964	6826	0.257058	0.43592	0	0	0	0	0	0	1	-360	360;
	5776	6826	0.002769	0.011449	0	0	0	0	0	0	1	-360	360;
	659	8329	0.00034	0.00305	0	1580	0	0	0	0	1	-360	360;
	659	7051	0.00123	0.01255	0	1843	0	0	0	0	1	-360	360;
	659	9239	6e-05	0.00065	0	1415	0	0	0	0	1	-360	360;
	659	7960	6e-05	0.00063	0	1514	0	0	0	0	1	-360	360;
	659	6233	6e-05	0.00055	0	1744	0	0	0	0	1	-360	360;
	659	5416	0.00079	0.00968	0	1349	0	0	0	0	1	-360	360;
	659	6798	7e-05	0.00079	0	0	0	0	0	0	1	-360	360;
	792	3279	0	0.000222	0	377	0	0	0	0	1	-360	360;
	7563	792	2.064178	7.545333	0	0	0	0	0	0	1	-360	360;
	7279	792	0.153711	0.482489	0	0	0	0	0	0	1	-360	360;
	8335	792	0.015809	0.12368	0	0	0	0	0	0	1	-360	360;
	2449	792	0.057978	0.363422	0	0	0	0	0	0	1	-360	360;
	4665	792	0.6932	2.196889	0	0	0	0	0	0	1	-360	360;
	4495	792	0.560356	2.395867	0	0	0	0	0	0	1	-360	360;
	5416	2267	0.00024	0.00213	0	757	0	0	0	0	1	-360	360;
	5416	7637	0.00093	0.00884	0	1283	0	0	0	0	1	-360	360;
	8964	2168	0	0.000222	0	312	0	0	0	0	1	-360	360;
	3659	5996	0.00018	0.00204	0	1777	0	0	0	0	1	-360	360;
	5762	5996	0.00018	0.00208	0	757	0	0	0	0	1	-360	360;
	3242	5097	0	0.000222	0	0	0	0	0	0	1	-360	360;
	7563	3242	0.02068	0.093391	0	0	0	0	0	0	1	-360	360;
	4427	3242	0.777778	7.408	0	0	0	0	0	0	1	-360	360;
	3242	7279	0.00884	0.07292	0	0	0	0	0	0	1	-360	360;
	271	3242	0.131671	8.295556	0	0	0	0	0	0	1	-360	360;
	3242	1611	0.082462	0.568222	0	0	0	0	0	0	1	-360	360;
	5097	1611	0.0042	0.02624	0	0	0	0	0	0	1	-360	360;
	8181	8179	0.00031	0.00317	0	1251	0	0	0	0	1	-360	360;
	8181	7762	0.00043	0.00498	0	1481	0	0	0	0	1	-360	360;
	9025	7762	0.00042	0.00508	0	1711	0	0	0	0	1	-360	360;
	7563	4427	0.110671	0.773067	0	0	0	0	0	0	1	-360	360;
	7563	7279	0.00912	0.037609	0	0	0	0	0	0	1	-360	360;
	7563	8335	0.098049	0.598711	0	0	0	0	0	0	1	-360	360;
	7563	5155	0.019031	1.160356	0	0	0	0	0	0	1	-360	360;
	7563	271	0.024071	0.915733	0	0	0	0	0	0	1	-360	360;
	2449	7563	1.484267	4.479111	0	0	0	0	0	0	1	-360	360;
	4665	7563	0.011578	0.063271	0	0	0	0	0	0	1	-360	360;
	4495	7563	0.654889	1.839111	0	0	0	0	0	0	1	-360	360;
	7563	1611	0.022049	0.10076	0	0	0	0	0	0	1	-360	360;
	4427	7279	0.459867	2.604711	0	0	0	0	0	0	1	-360	360;
	4427	8335	2.320222	6.088	0	0	0	0	0	0	1	-360	360;
	4427	5155	0.006369	0.048089	0	0	0	0	0	0	1	-360	360;
	4427	271	0.006631	0.0432	0	0	0	0	0	0	1	-360	360;
	2449	4427	2.567244	6.767111	0	0	0	0	0	0	1	-360	360;
	4665	4427	0.309889	1.214178	0	0	0	0	0	0	1	-360	360;
	4495	4427	0.009191	0.043289	0	0	0	0	0	0	1	-360	360;
	4427	1611	0.691022	5.239556	0	0	0	0	0	0	1	-360	360;
	5210	1445	0.002669	0.01718	0	0	0	0	0	0	1	-360	360;
	8179	5509	0.00074	0.00694	0	1251	0	0	0	0	1	-360	360;
	8179	7762	0.00068	0.008	0	1547	0	0	0	0	1	-360	360;
	7279	4014	0	0.000222	0	0	0	0	0	0	1	-360	360;
	8335	7279	0.00524	0.030631	0	0	0	0	0	0	1	-360	360;
	5155	7279	0.33932	3.814667	0	0	0	0	0	0	1	-360	360;
	271	7279	0.22696	2.614933	0	0	0	0	0	0	1	-360	360;
	2449	7279	0.190671	0.719378	0	0	0	0	0	0	1	-360	360;
	4665	7279	1.050222	2.105556	0	0	0	0	0	0	1	-360	360;
	4495	7279	1.431644	4.294578	0	0	0	0	0	0	1	-360	360;
	1611	7279	0.022618	0.161089	0	0	0	0	0	0	1	-360	360;
	5509	1579	0.00088	0.00895	0	1810	0	0	0	0	1	-360	360;
	8335	1531	0	0.000222	0	299	0	0	0	0	1	-360	360;
	5155	8335	1.827778	7.768	0	0	0	0	0	0	1	-360	360;
	2449	8335	0.020849	0.153382	0	0	0	0	0	0	1	-360	360;
	4665	8335	0.156231	0.656267	0	0	0	0	0	0	1	-360	360;
	4495	8335	0.176498	0.891556	0	0	0	0	0	0	1	-360	360;
	7762	2268	0.00067	0.00777	0	1613	0	0	0	0	1	-360	360;
	5155	271	0.004578	0.061889	0	0	0	0	0	0	1	-360	360;
	5155	2908	0.01348	0.05932	0	0	0	0	0	0	1	-360	360;
	4665	5155	0.066391	2.802622	0	0	0	0	0	0	1	-360	360;
...
];

%%-----  OPF Data  -----%%
%% generator cost data
%	1	startup	shutdown	n	x1	y1	...	xn	yn
%	2	startup	shutdown	n	c(n-1)	...	c0
mpc.gencost = [
	2	0	0	3	0	1	0;
	2	0	0	3	0	1	0;
	2	0	0	3	0	1	0;
	2	0	0	3	0	1	0;
	2	0	0	3	0	1	0;
	2	0	0	3	0	1	0;
	2	0	0	3	0	1	0;
	2	0	0	3	0	1	0;
	2	0	0	3	0	1	0;
	2	0	0	3	0	1	0;
	2	0	0	3	0	1	0;
	2	0	0	3	0	1	0;
	2	0	0	3	0	1	0;
	2	0	0	3	0	1	0;
	2	0	0	3	0	1	0;
	2	0	0	3	0	1	0;
	2	0	0	3	0	1	0;
	2	0	0	3	0	1	0;
	2	0	0	3	0	1	0;
	2	0	0	3	0	1	0;
	2	0	0	3	0	1	0;
	2	0	0	3	0	1	0;
	2	0	0	3	0	1	0;
	2	0	0	3	0	1	0;
	2	0	0	3	0	1	0;
	2	0	0	3	0	1	0;
	2	0	0	3	0	1	0;
	2	0	0	3	0	1	0;
	2	0	0	3	0	1	0;
	2	0	0	3	0	1	0;
	2	0	0	3	0	1	0;
	2	0	0	3	0	1	0;
	2	0	0	3	0	1	0;
	2	0	0	3	0	1	0;
	2	0	0	3	0	1	0;
	2	0	0	3	0	1	0;
	2	0	0	3	0	1	0;
	2	0	0	3	0	1	0;
	2	0	0	3	0	1	0;
	2	0	0	3	0	1	0;
	2	0	0	3	0	1	0;
	2	0	0	3	0	1	0;
	2	0	0	3	0	1	0;
	2	0	0	3	0	1	0;
	2	0	0	3	0	1	0;
	2	0	0	3	0	1	0;
	2	0	0	3	0	1	0;
	2	0	0	3	0	1	0;
	2	0	0	3	0	1	0;
	2	0	0	3	0	1	0;
	2	0	0	3	0	1	0;
	2	0	0	3	0	1	0;
	2	0	0	3	0	1	0;
	2	0	0	3	0	1	0;
	2	0	0	3	0	1	0;
	2	0	0	3	0	1	0;
	2	0	0	3	0	1	0;
	2	0	0	3	0	1	0;
	2	0	0	3	0	1	0;
	2	0	0	3	0	1	0;
	2	0	0	3	0	1	0;
	2	0	0	3	0	1	0;
	2	0	0	3	0	1	0;
	2	0	0	3	0	1	0;
	2	0	0	3	0	1	0;
	2	0	0	3	0	1	0;
	2	0	0	3	0	1	0;
	2	0	0	3	0	1	0;
	2	0	0	3	0	1	0;
	2	0	0	3	0	1	0;
	2	0	0	3	0	1	0;
	2	0	0	3	0	1	0;
	2	0	0	3	0	1	0;
	2	0	0	3	0	1	0;
	2	0	0	3	0	1	0;
	2	0	0	3	0	1	0;
	2	0	0	3	0	1	0;
	2	0	0	3	0	1	0;
	2	0	0	3	0	1	0;
	2	0	0	3	0	1	0;
	2	0	0	3	0	1	0;
	2	0	0	3	0	1	0;
	2	0	0	3	0	1	0;
	2	0	0	3	0	1	0;
	2	0	0	3	0	1	0;
	2	0	0	3	0	1	0;
	2	0	0	3	0	1	0;
	2	0	0	3	0	1	0;
	2	0	0	3	0	1	0;
	2	0	0	3	0	1	0;
	2	0	0	3	0	1	0;
	2	0	0	3	0	1	0;
	2	0	0	3	0	1	0;
	2	0	0	3	0	1	0;
	2	0	0	3	0	1	0;
	2	0	0	3	0	1	0;
	2	0	0	3	0	1	0;
	2	0	0	3	0	1	0;
	2	0	0	3	0	1	0;
	2	0	0	3	0	1	0;
	2	0	0	3	0	1	0;
	2	0	0	3	0	1	0;
	2	0	0	3	0	1	0;
	2	0	0	3	0	1	0;
	2	0	0	3	0	1	0;
	2	0	0	3	0	1	0;
	2	0	0	3	0	1	0;
	2	0	0	3	0	1	0;
	2	0	0	3	0	1	0;
	2	0	0	3	0	1	0;
	2	0	0	3	0	1	0;
	2	0	0	3	0	1	0;
	2	0	0	3	0	1	0;
	2	0	0	3	0	1	0;
	2	0	0	3	0	1	0;
	2	0	0	3	0	1	0;
	2	0	0	3	0	1	0;
	2	0	0	3	0	1	0;
	2	0	0	3	0	1	0;
	2	0	0	3	0	1	0;
	2	0	0	3	0	1	0;
	2	0	0	3	0	1	0;
	2	0	0	3	0	1	0;
	2	0	0	3	0	1	0;
	2	0	0	3	0	1	0;
	2	0	0	3	0	1	0;
	2	0	0	3	0	1	0;
	2	0	0	3	0	1	0;
	2	0	0	3	0	1	0;
	2	0	0	3	0	1	0;
	2	0	0	3	0	1	0;
	2	0	0	3	0	1	0;
	2	0	0	3	0	1	0;
	2	0	0	3	0	1	0;
	2	0	0	3	0	1	0;
	2	0	0	3	0	1	0;
	2	0	0	3	0	1	0;
	2	0	0	3	0	1	0;
	2	0	0	3	0	1	0;
	2	0	0	3	0	1	0;
	2	0	0	3	0	1	0;
	2	0	0	3	0	1	0;
	2	0	0	3	0	1	0;
	2	0	0	3	0	1	0;
	2	0	0	3	0	1	0;
	2	0	0	3	0	1	0;
	2	0	0	3	0	1	0;
	2	0	0	3	0	1	0;
	2	0	0	3	0	1	0;
	2	0	0	3	0	1	0;
	2	0	0	3	0	1	0;
	2	0	0	3	0	1	0;
	2	0	0	3	0	1	0;
	2	0	0	3	0	1	0;
	2	0	0	3	0	1	0;
	2	0	0	3	0	1	0;
	2	0	0	3	0	1	0;
	2	0	0	3	0	1	0;
	2	0	0	3	0	1	0;
	2	0	0	3	0	1	0;
	2	0	0	3	0	1	0;
	2	0	0	3	0	1	0;
	2	0	0	3	0	1	0;
	2	0	0	3	0	1	0;
	2	0	0	3	0	1	0;
	2	0	0	3	0	1	0;
	2	0	0	3	0	1	0;
	2	0	0	3	0	1	0;
	2	0	0	3	0	1	0;
	2	0	0	3	0	1	0;
	2	0	0	3	0	1	0;
	2	0	0	3	0	1	0;
	2	0	0	3	0	1	0;
	2	0	0	3	0	1	0;
	2	0	0	3	0	1	0;
	2	0	0	3	0	1	0;
	2	0	0	3	0	1	0;
	2	0	0	3	0	1	0;
	2	0	0	3	0	1	0;
	2	0	0	3	0	1	0;
	2	0	0	3	0	1	0;
	2	0	0	3	0	1	0;
	2	0	0	3	0	1	0;
	2	0	0	3	0	1	0;
	2	0	0	3	0	1	0;
	2	0	0	3	0	1	0;
	2	0	0	3	0	1	0;
	2	0	0	3	0	1	0;
	2	0	0	3	0	1	0;
	2	0	0	3	0	1	0;
	2	0	0	3	0	1	0;
	2	0	0	3	0	1	0;
	2	0	0	3	0	1	0;
	2	0	0	3	0	1	0;
	2	0	0	3	0	1	0;
	2	0	0	3	0	1	0;
	2	0	0	3	0	1	0;
	2	0	0	3	0	1	0;
	2	0	0	3	0	1	0;
	2	0	0	3	0	1	0;
...
];
